/*--------------------------------*- C++ -*----------------------------------*\
| =========                 |                                                 |
| \\      /  F ield         | OpenFOAM: The Open Source CFD Toolbox           |
|  \\    /   O peration     | Version:  2.1.0                                 |
|   \\  /    A nd           | Web:      www.OpenFOAM.org                      |
|    \\/     M anipulation  |                                                 |
\*---------------------------------------------------------------------------*/
FoamFile
{
    version     2.0;
    format      ascii;
    class       dictionary;
    location    "constant";
    object      turbulenceProperties;
}
// * * * * * * * * * * * * * * * * * * * * * * * * * * * * * * * * * * * * * //

simulationType  LES;

LES{
    LESModel        Smagorinsky; 

    turbulence      on;

    delta           cubeRootVol;

    printCoeffs     on;

    oneEqEddyCoeffs
    {
        ce              1.048;
        Prt             1;
        ck              0.094;
    }

    cubeRootVolCoeffs
    {
        deltaCoeff      1;
    }

    PrandtlCoeffs
    {
        delta           cubeRootVol;
        cubeRootVolCoeffs
        {
            deltaCoeff      1;
        }

        smoothCoeffs
        {
            delta           cubeRootVol;
            cubeRootVolCoeffs
            {
                deltaCoeff      1;
            }

            maxDeltaRatio   1.1;
        }

        Cdelta          0.158;
    }

    vanDriestCoeffs
    {
        delta           cubeRootVol;
        cubeRootVolCoeffs
        {
            deltaCoeff      1;
        }

        smoothCoeffs
        {
            delta           cubeRootVol;
            cubeRootVolCoeffs
            {
                deltaCoeff      1;
            }

            maxDeltaRatio   1.1;
        }

        Aplus           26;
        Cdelta          0.158;
    }

    smoothCoeffs
    {
        delta           cubeRootVol;
        cubeRootVolCoeffs
        {
            deltaCoeff      1;
        }

        maxDeltaRatio   1.1;
    }
}

//simulationType   RAS;

RAS
{
    model           kEpsilon;

    kEpsilonCoeffs
    {
        Prt 0.85;
    }

    turbulence      on;
    printCoeffs     on;
}
// ************************************************************************* //
